examples/Nordic/data/inputs/operating_point_23/Nordic.xiidm
<?xml version="1.0" encoding="UTF-8"?>
<iidm:network xmlns:iidm="http://www.powsybl.org/schema/iidm/1_5" id="Nordic32_corrige" caseDate="2019-07-30T16:39:00+02:00" forecastDistance="0" sourceFormat="NF">
    <iidm:substation id="S_4011" country="FR" tso="RTE">
        <iidm:voltageLevel id="1011_130" nominalV="130" highVoltageLimit="136.5" topologyKind="NODE_BREAKER">
            <iidm:nodeBreakerTopology>
                <iidm:busbarSection id="1011_131" node="0"/>
                <iidm:switch id="Tr1011-4011_disconnector2" kind="DISCONNECTOR" retained="true" open="false" node1="0" node2="1"/>
                <iidm:switch id="Tr1011-4011_breaker2" kind="BREAKER" retained="true" open="false" node1="1" node2="2"/>
                <iidm:switch id="Tr11-1011_disconnector1" kind="DISCONNECTOR" retained="true" open="false" node1="0" node2="3"/>
                <iidm:switch id="Tr11-1011_breaker1" kind="BREAKER" retained="true" open="false" node1="3" node2="4"/>
                <iidm:switch id="L1011-1013a_disconnector1" kind="DISCONNECTOR" retained="true" open="false" node1="0" node2="5"/>
                <iidm:switch id="L1011-1013a_breaker1" kind="BREAKER" retained="true" open="false" node1="5" node2="6"/>
                <iidm:switch id="L1011-1013b_disconnector1" kind="DISCONNECTOR" retained="true" open="false" node1="0" node2="7"/>
                <iidm:switch id="L1011-1013b_breaker1" kind="BREAKER" retained="true" open="false" node1="7" node2="8"/>
                <iidm:bus v="143.47987939107793" angle="41.506620175685995" nodes="0,1,2,3,4,5,6,7,8"/>
            </iidm:nodeBreakerTopology>
        </iidm:voltageLevel>
        <iidm:voltageLevel id="4011_400" nominalV="400" highVoltageLimit="420" topologyKind="NODE_BREAKER">
            <iidm:nodeBreakerTopology>
                <iidm:busbarSection id="4011_401" node="0"/>
                <iidm:switch id="Tr1011-4011_disconnector1" kind="DISCONNECTOR" retained="true" open="false" node1="0" node2="1"/>
                <iidm:switch id="Tr1011-4011_breaker1" kind="BREAKER" retained="true" open="false" node1="1" node2="2"/>
                <iidm:switch id="Tr4011-g9_disconnector1" kind="DISCONNECTOR" retained="true" open="false" node1="0" node2="3"/>
                <iidm:switch id="Tr4011-g9_breaker1" kind="BREAKER" retained="true" open="false" node1="3" node2="4"/>
                <iidm:switch id="L4011-4012_disconnector1" kind="DISCONNECTOR" retained="true" open="false" node1="0" node2="5"/>
                <iidm:switch id="L4011-4012_breaker1" kind="BREAKER" retained="true" open="false" node1="5" node2="6"/>
                <iidm:switch id="L4011-4021_disconnector2" kind="DISCONNECTOR" retained="true" open="false" node1="0" node2="7"/>
                <iidm:switch id="L4011-4021_breaker2" kind="BREAKER" retained="true" open="false" node1="7" node2="8"/>
                <iidm:switch id="L4011-4022_disconnector1" kind="DISCONNECTOR" retained="true" open="false" node1="0" node2="9"/>
                <iidm:switch id="L4011-4022_breaker1" kind="BREAKER" retained="true" open="false" node1="9" node2="10"/>
                <iidm:switch id="L4011-4071_disconnector2" kind="DISCONNECTOR" retained="true" open="false" node1="0" node2="11"/>
                <iidm:switch id="L4011-4071_breaker2" kind="BREAKER" retained="true" open="false" node1="11" node2="12"/>
                <iidm:bus v="425.99776577226311" angle="40.978739507468759" nodes="0,1,2,3,4,5,6,7,8,9,10,11,12"/>
            </iidm:nodeBreakerTopology>
        </iidm:voltageLevel>
        <iidm:voltageLevel id="B11___20" nominalV="20" highVoltageLimit="21" topologyKind="NODE_BREAKER">
            <iidm:nodeBreakerTopology>
                <iidm:busbarSection id="B11___21" node="0"/>
                <iidm:switch id="11_1_disconnector" kind="DISCONNECTOR" retained="true" open="false" node1="0" node2="1"/>
                <iidm:switch id="11_1_breaker" kind="BREAKER" retained="true" open="false" node1="1" node2="2"/>
                <iidm:switch id="Tr11-1011_disconnector2" kind="DISCONNECTOR" retained="true" open="false" node1="0" node2="3"/>
                <iidm:switch id="Tr11-1011_breaker2" kind="BREAKER" retained="true" open="false" node1="3" node2="4"/>
                <iidm:bus v="20.267733267327948" angle="38.772501341680304" nodes="0,1,2,3,4"/>
            </iidm:nodeBreakerTopology>
            <iidm:load id="11_1" loadType="UNDEFINED" p0="199.99400329589844" q0="68.7958984375" node="2" p="199.44759259777734" q="68.611674787154101"/>
        </iidm:voltageLevel>
        <iidm:voltageLevel id="BG09__15" nominalV="15" highVoltageLimit="15.750001907348633" topologyKind="NODE_BREAKER">
            <iidm:nodeBreakerTopology>
                <iidm:busbarSection id="BG09__11" node="0"/>
                <iidm:switch id="g09_disconnector" kind="DISCONNECTOR" retained="true" open="false" node1="0" node2="1"/>
                <iidm:switch id="g09_breaker" kind="BREAKER" retained="true" open="false" node1="1" node2="2"/>
                <iidm:switch id="Tr4011-g9_disconnector2" kind="DISCONNECTOR" retained="true" open="false" node1="0" node2="3"/>
                <iidm:switch id="Tr4011-g9_breaker2" kind="BREAKER" retained="true" open="false" node1="3" node2="4"/>
                <iidm:bus v="15.056230356346905" angle="45.449727798087409" nodes="0,1,2,3,4"/>
            </iidm:nodeBreakerTopology>
            <iidm:generator id="g09" energySource="HYDRO" minP="0" maxP="9999" voltageRegulatorOn="true" targetP="668.5" targetV="14.981999397277832" targetQ="201.25199890136719" node="2" p="-529.09277707207934" q="49.821051331723567">
                <iidm:property name="genreCvg" value="AUTRE"/>
                <iidm:reactiveCapabilityCurve>
                    <iidm:point p="0" minQ="-1000" maxQ="1000"/>
                    <iidm:point p="9999" minQ="-1000" maxQ="1000"/>
                </iidm:reactiveCapabilityCurve>
            </iidm:generator>
        </iidm:voltageLevel>
        <iidm:twoWindingsTransformer id="Tr1011-4011" r="0" x="1.3519998788833618" g="0" b="0" ratedU1="400" ratedU2="130" node1="2" voltageLevelId1="4011_400" node2="2" voltageLevelId2="1011_130" p1="-142.49132472105433" q1="243.85929549340131" p2="142.49132472105509" q2="-238.78134770268184">
            <iidm:ratioTapChanger lowTapPosition="0" tapPosition="0" loadTapChangingCapabilities="false">
                <iidm:step r="0" x="0" g="0" b="0" rho="1.0526316165924072"/>
                <iidm:step r="0" x="0" g="0" b="0" rho="1.0416667461395264"/>
                <iidm:step r="0" x="0" g="0" b="0" rho="1.0309277772903442"/>
                <iidm:step r="0" x="0" g="0" b="0" rho="1.0204081535339355"/>
                <iidm:step r="0" x="0" g="0" b="0" rho="1.0101009607315063"/>
                <iidm:step r="0" x="0" g="0" b="0" rho="1"/>
                <iidm:step r="0" x="0" g="0" b="0" rho="0.99009901285171509"/>
                <iidm:step r="0" x="0" g="0" b="0" rho="0.98039215803146362"/>
                <iidm:step r="0" x="0" g="0" b="0" rho="0.97087383270263672"/>
                <iidm:step r="0" x="0" g="0" b="0" rho="0.96153849363327026"/>
                <iidm:step r="0" x="0" g="0" b="0" rho="0.95238101482391357"/>
            </iidm:ratioTapChanger>
            <iidm:currentLimits1 permanentLimit="5551.43994140625"/>
            <iidm:currentLimits2 permanentLimit="5551.43994140625"/>
        </iidm:twoWindingsTransformer>
        <iidm:twoWindingsTransformer id="Tr11-1011" r="0" x="0.10000003129243851" g="0" b="0" ratedU1="130" ratedU2="20" node1="4" voltageLevelId1="1011_130" node2="4" voltageLevelId2="B11___20" p1="199.44759260242373" q1="79.441512765833906" p2="-199.44759260242409" q2="-68.611674785175708">
            <iidm:ratioTapChanger lowTapPosition="0" tapPosition="27" targetDeadband="0" loadTapChangingCapabilities="true" regulating="true" targetV="20">
                <iidm:terminalRef id="Tr11-1011" side="TWO"/>
                <iidm:step r="0" x="0" g="0" b="0" rho="1.25"/>
                <iidm:step r="0" x="0" g="0" b="0" rho="1.2345678806304932"/>
                <iidm:step r="0" x="0" g="0" b="0" rho="1.2195122241973877"/>
                <iidm:step r="0" x="0" g="0" b="0" rho="1.2048193216323853"/>
                <iidm:step r="0" x="0" g="0" b="0" rho="1.1904761791229248"/>
                <iidm:step r="0" x="0" g="0" b="0" rho="1.1764705181121826"/>
                <iidm:step r="0" x="0" g="0" b="0" rho="1.1627906560897827"/>
                <iidm:step r="0" x="0" g="0" b="0" rho="1.1494252681732178"/>
                <iidm:step r="0" x="0" g="0" b="0" rho="1.1363636255264282"/>
                <iidm:step r="0" x="0" g="0" b="0" rho="1.1235954761505127"/>
                <iidm:step r="0" x="0" g="0" b="0" rho="1.1111111640930176"/>
                <iidm:step r="0" x="0" g="0" b="0" rho="1.0989010334014893"/>
                <iidm:step r="0" x="0" g="0" b="0" rho="1.0869565010070801"/>
                <iidm:step r="0" x="0" g="0" b="0" rho="1.0752688646316528"/>
                <iidm:step r="0" x="0" g="0" b="0" rho="1.063829779624939"/>
                <iidm:step r="0" x="0" g="0" b="0" rho="1.0526316165924072"/>
                <iidm:step r="0" x="0" g="0" b="0" rho="1.0416667461395264"/>
                <iidm:step r="0" x="0" g="0" b="0" rho="1.0309277772903442"/>
                <iidm:step r="0" x="0" g="0" b="0" rho="1.0204081535339355"/>
                <iidm:step r="0" x="0" g="0" b="0" rho="1.0101009607315063"/>
                <iidm:step r="0" x="0" g="0" b="0" rho="1"/>
                <iidm:step r="0" x="0" g="0" b="0" rho="0.99009901285171509"/>
                <iidm:step r="0" x="0" g="0" b="0" rho="0.98039215803146362"/>
                <iidm:step r="0" x="0" g="0" b="0" rho="0.97087383270263672"/>
                <iidm:step r="0" x="0" g="0" b="0" rho="0.96153849363327026"/>
                <iidm:step r="0" x="0" g="0" b="0" rho="0.95238101482391357"/>
                <iidm:step r="0" x="0" g="0" b="0" rho="0.94339627027511597"/>
                <iidm:step r="0" x="0" g="0" b="0" rho="0.93457937240600586"/>
                <iidm:step r="0" x="0" g="0" b="0" rho="0.92592591047286987"/>
                <iidm:step r="0" x="0" g="0" b="0" rho="0.91743117570877075"/>
                <iidm:step r="0" x="0" g="0" b="0" rho="0.90909087657928467"/>
                <iidm:step r="0" x="0" g="0" b="0" rho="0.90090090036392212"/>
                <iidm:step r="0" x="0" g="0" b="0" rho="0.8928571343421936"/>
            </iidm:ratioTapChanger>
            <iidm:currentLimits1 permanentLimit="11547"/>
            <iidm:currentLimits2 permanentLimit="11547"/>
        </iidm:twoWindingsTransformer>
        <iidm:twoWindingsTransformer id="Tr4011-g9" r="0" x="0.033750001341104507" g="0" b="0" ratedU1="400" ratedU2="15" node1="4" voltageLevelId1="4011_400" node2="4" voltageLevelId2="BG09__15" p1="-529.09277706717091" q1="91.868412640731421" p2="529.0927770671708" q2="-49.821051331724007">
            <iidm:ratioTapChanger lowTapPosition="0" tapPosition="10" loadTapChangingCapabilities="false">
                <iidm:step r="0" x="0" g="0" b="0" rho="1.0526316165924072"/>
                <iidm:step r="0" x="0" g="0" b="0" rho="1.0416667461395264"/>
                <iidm:step r="0" x="0" g="0" b="0" rho="1.0309277772903442"/>
                <iidm:step r="0" x="0" g="0" b="0" rho="1.0204081535339355"/>
                <iidm:step r="0" x="0" g="0" b="0" rho="1.0101009607315063"/>
                <iidm:step r="0" x="0" g="0" b="0" rho="1"/>
                <iidm:step r="0" x="0" g="0" b="0" rho="0.99009901285171509"/>
                <iidm:step r="0" x="0" g="0" b="0" rho="0.98039215803146362"/>
                <iidm:step r="0" x="0" g="0" b="0" rho="0.97087383270263672"/>
                <iidm:step r="0" x="0" g="0" b="0" rho="0.96153849363327026"/>
                <iidm:step r="0" x="0" g="0" b="0" rho="0.95238101482391357"/>
            </iidm:ratioTapChanger>
            <iidm:currentLimits1 permanentLimit="38490"/>
            <iidm:currentLimits2 permanentLimit="38490"/>
        </iidm:twoWindingsTransformer>
    </iidm:substation>
    <iidm:substation id="S_4012" country="FR" tso="RTE">
        <iidm:voltageLevel id="1012_130" nominalV="130" highVoltageLimit="136.5" topologyKind="NODE_BREAKER">
            <iidm:nodeBreakerTopology>
                <iidm:busbarSection id="1012_131" node="0"/>
                <iidm:switch id="Tr1012-4012_disconnector2" kind="DISCONNECTOR" retained="true" open="false" node1="0" node2="1"/>
                <iidm:switch id="Tr1012-4012_breaker2" kind="BREAKER" retained="true" open="false" node1="1" node2="2"/>
                <iidm:switch id="Tr1012-g1_disconnector1" kind="DISCONNECTOR" retained="true" open="false" node1="0" node2="3"/>
                <iidm:switch id="Tr1012-g1_breaker1" kind="BREAKER" retained="true" open="false" node1="3" node2="4"/>
                <iidm:switch id="Tr12-1012_disconnector1" kind="DISCONNECTOR" retained="true" open="false" node1="0" node2="5"/>
                <iidm:switch id="Tr12-1012_breaker1" kind="BREAKER" retained="true" open="false" node1="5" node2="6"/>
                <iidm:switch id="L1012-1014a_disconnector2" kind="DISCONNECTOR" retained="true" open="false" node1="0" node2="7"/>
                <iidm:switch id="L1012-1014a_breaker2" kind="BREAKER" retained="true" open="false" node1="7" node2="8"/>
                <iidm:switch id="L1012-1014b_disconnector2" kind="DISCONNECTOR" retained="true" open="false" node1="0" node2="9"/>
                <iidm:switch id="L1012-1014b_breaker2" kind="BREAKER" retained="true" open="false" node1="9" node2="10"/>
                <iidm:bus v="142.03488738259659" angle="44.465254339790214" nodes="0,1,2,3,4,5,6,7,8,9,10"/>
            </iidm:nodeBreakerTopology>
        </iidm:voltageLevel>
        <iidm:voltageLevel id="4012_400" nominalV="400" highVoltageLimit="420" topologyKind="NODE_BREAKER">
            <iidm:nodeBreakerTopology>
                <iidm:busbarSection id="4012_401" node="0"/>
                <iidm:switch id="4012-Ind_disconnector" kind="DISCONNECTOR" retained="true" open="false" node1="0" node2="1"/>
                <iidm:switch id="4012-Ind_breaker" kind="BREAKER" retained="true" open="false" node1="1" node2="2"/>
                <iidm:switch id="Tr1012-4012_disconnector1" kind="DISCONNECTOR" retained="true" open="false" node1="0" node2="3"/>
                <iidm:switch id="Tr1012-4012_breaker1" kind="BREAKER" retained="true" open="false" node1="3" node2="4"/>
                <iidm:switch id="Tr4012-g10_disconnector1" kind="DISCONNECTOR" retained="true" open="false" node1="0" node2="5"/>
                <iidm:switch id="Tr4012-g10_breaker1" kind="BREAKER" retained="true" open="false" node1="5" node2="6"/>
                <iidm:switch id="L4011-4012_disconnector2" kind="DISCONNECTOR" retained="true" open="false" node1="0" node2="7"/>
                <iidm:switch id="L4011-4012_breaker2" kind="BREAKER" retained="true" open="false" node1="7" node2="8"/>
                <iidm:switch id="L4012-4022_disconnector1" kind="DISCONNECTOR" retained="true" open="false" node1="0" node2="9"/>
                <iidm:switch id="L4012-4022_breaker1" kind="BREAKER" retained="true" open="false" node1="9" node2="10"/>
                <iidm:switch id="L4012-4071_disconnector2" kind="DISCONNECTOR" retained="true" open="false" node1="0" node2="11"/>
                <iidm:switch id="L4012-4071_breaker2" kind="BREAKER" retained="true" open="false" node1="11" node2="12"/>
                <iidm:bus v="423.63678687045103" angle="42.496843690623407" nodes="0,1,2,3,4,5,6,7,8,9,10,11,12"/>
            </iidm:nodeBreakerTopology>
            <iidm:shunt id="4012-Ind" sectionCount="1" voltageRegulatorOn="false" node="2" q="112.1675769865592">
                <iidm:property name="qMax" value="-100"/>
                <iidm:shuntLinearModel bPerSection="-0.00062499998603016138" maximumSectionCount="1"/>
            </iidm:shunt>
        </iidm:voltageLevel>
        <iidm:voltageLevel id="B12___20" nominalV="20" highVoltageLimit="21" topologyKind="NODE_BREAKER">
            <iidm:nodeBreakerTopology>
                <iidm:busbarSection id="B12___21" node="0"/>
                <iidm:switch id="12_1_disconnector" kind="DISCONNECTOR" retained="true" open="false" node1="0" node2="1"/>
                <iidm:switch id="12_1_breaker" kind="BREAKER" retained="true" open="false" node1="1" node2="2"/>
                <iidm:switch id="Tr12-1012_disconnector2" kind="DISCONNECTOR" retained="true" open="false" node1="0" node2="3"/>
                <iidm:switch id="Tr12-1012_breaker2" kind="BREAKER" retained="true" open="false" node1="3" node2="4"/>
                <iidm:bus v="20.213919919024125" angle="42.496373232511495" nodes="0,1,2,3,4"/>
            </iidm:nodeBreakerTopology>
            <iidm:load id="12_1" loadType="UNDEFINED" p0="300.00201416015625" q0="83.801200866699219" node="2" p="212.74060767709045" q="59.430216770064249"/>
        </iidm:voltageLevel>
        <iidm:voltageLevel id="BG01__15" nominalV="15" highVoltageLimit="15.750001907348633" topologyKind="NODE_BREAKER">
            <iidm:nodeBreakerTopology>
                <iidm:busbarSection id="BG01__11" node="0"/>
                <iidm:switch id="g01_disconnector" kind="DISCONNECTOR" retained="true" open="false" node1="0" node2="1"/>
                <iidm:switch id="g01_breaker" kind="BREAKER" retained="true" open="false" node1="1" node2="2"/>
                <iidm:switch id="Tr1012-g1_disconnector2" kind="DISCONNECTOR" retained="true" open="false" node1="0" node2="3"/>
                <iidm:switch id="Tr1012-g1_breaker2" kind="BREAKER" retained="true" open="false" node1="3" node2="4"/>
                <iidm:bus v="16.084978485903818" angle="48.948883540435986" nodes="0,1,2,3,4"/>
            </iidm:nodeBreakerTopology>
            <iidm:generator id="g01" energySource="HYDRO" minP="0" maxP="9999" voltageRegulatorOn="true" targetP="600" targetV="16.025999069213867" targetQ="58.340000152587891" node="2" p="-488.47603913266477" q="96.656026290539316">
                <iidm:property name="genreCvg" value="AUTRE"/>
                <iidm:reactiveCapabilityCurve>
                    <iidm:point p="0" minQ="-800" maxQ="800"/>
                    <iidm:point p="9999" minQ="-800" maxQ="800"/>
                </iidm:reactiveCapabilityCurve>
            </iidm:generator>
        </iidm:voltageLevel>
        <iidm:voltageLevel id="BG10__15" nominalV="15" highVoltageLimit="15.750001907348633" topologyKind="NODE_BREAKER">
            <iidm:nodeBreakerTopology>
                <iidm:busbarSection id="BG10__11" node="0"/>
                <iidm:switch id="g10_disconnector" kind="DISCONNECTOR" retained="true" open="false" node1="0" node2="1"/>
                <iidm:switch id="g10_breaker" kind="BREAKER" retained="true" open="false" node1="1" node2="2"/>
                <iidm:switch id="Tr4012-g10_disconnector2" kind="DISCONNECTOR" retained="true" open="false" node1="0" node2="3"/>
                <iidm:switch id="Tr4012-g10_breaker2" kind="BREAKER" retained="true" open="false" node1="3" node2="4"/>
                <iidm:bus v="15.301595824155601" angle="47.606501719373107" nodes="0,1,2,3,4"/>
            </iidm:nodeBreakerTopology>
            <iidm:generator id="g10" energySource="HYDRO" minP="0" maxP="9999" voltageRegulatorOn="true" targetP="600" targetV="15.235500335693359" targetQ="255.70100402832031" node="2" p="-488.74460230631416" q="-84.087501692511609">
                <iidm:property name="genreCvg" value="AUTRE"/>
                <iidm:reactiveCapabilityCurve>
                    <iidm:point p="0" minQ="-800" maxQ="800"/>
                    <iidm:point p="9999" minQ="-800" maxQ="800"/>
                </iidm:reactiveCapabilityCurve>
            </iidm:generator>
        </iidm:voltageLevel>
        <iidm:twoWindingsTransformer id="Tr1012-4012" r="0" x="1.3519998788833618" g="0" b="0" ratedU1="400" ratedU2="130" node1="4" voltageLevelId1="4012_400" node2="2" voltageLevelId2="1012_130" p1="-522.97322383378719" q1="319.15383391475103" p2="522.97322383378639" q2="-294.9926640899269">
            <iidm:ratioTapChanger lowTapPosition="0" tapPosition="0" loadTapChangingCapabilities="false">
                <iidm:step r="0" x="0" g="0" b="0" rho="1.0526316165924072"/>
                <iidm:step r="0" x="0" g="0" b="0" rho="1.0416667461395264"/>
                <iidm:step r="0" x="0" g="0" b="0" rho="1.0309277772903442"/>
                <iidm:step r="0" x="0" g="0" b="0" rho="1.0204081535339355"/>
                <iidm:step r="0" x="0" g="0" b="0" rho="1.0101009607315063"/>
                <iidm:step r="0" x="0" g="0" b="0" rho="1"/>
                <iidm:step r="0" x="0" g="0" b="0" rho="0.99009901285171509"/>
                <iidm:step r="0" x="0" g="0" b="0" rho="0.98039215803146362"/>
                <iidm:step r="0" x="0" g="0" b="0" rho="0.97087383270263672"/>
                <iidm:step r="0" x="0" g="0" b="0" rho="0.96153849363327026"/>
                <iidm:step r="0" x="0" g="0" b="0" rho="0.95238101482391357"/>
            </iidm:ratioTapChanger>
            <iidm:currentLimits1 permanentLimit="5551.43994140625"/>
            <iidm:currentLimits2 permanentLimit="5551.43994140625"/>
        </iidm:twoWindingsTransformer>
        <iidm:twoWindingsTransformer id="Tr1012-g1" r="0" x="0.042187508195638657" g="0" b="0" ratedU1="130" ratedU2="15" node1="4" voltageLevelId1="1012_130" node2="4" voltageLevelId2="BG01__15" p1="-488.4760391422933" q1="137.08653164433409" p2="488.4760391422933" q2="-96.656026290539359">
            <iidm:ratioTapChanger lowTapPosition="0" tapPosition="5" loadTapChangingCapabilities="false">
                <iidm:step r="0" x="0" g="0" b="0" rho="1.0526316165924072"/>
                <iidm:step r="0" x="0" g="0" b="0" rho="1.0416667461395264"/>
                <iidm:step r="0" x="0" g="0" b="0" rho="1.0309277772903442"/>
                <iidm:step r="0" x="0" g="0" b="0" rho="1.0204081535339355"/>
                <iidm:step r="0" x="0" g="0" b="0" rho="1.0101009607315063"/>
                <iidm:step r="0" x="0" g="0" b="0" rho="1"/>
                <iidm:step r="0" x="0" g="0" b="0" rho="0.99009901285171509"/>
                <iidm:step r="0" x="0" g="0" b="0" rho="0.98039215803146362"/>
                <iidm:step r="0" x="0" g="0" b="0" rho="0.97087383270263672"/>
                <iidm:step r="0" x="0" g="0" b="0" rho="0.96153849363327026"/>
                <iidm:step r="0" x="0" g="0" b="0" rho="0.95238101482391357"/>
            </iidm:ratioTapChanger>
            <iidm:currentLimits1 permanentLimit="30791.998046875"/>
            <iidm:currentLimits2 permanentLimit="30791.998046875"/>
        </iidm:twoWindingsTransformer>
        <iidm:twoWindingsTransformer id="Tr12-1012" r="0" x="0.066666767001152039" g="0" b="0" ratedU1="130" ratedU2="20" node1="6" voltageLevelId1="1012_130" node2="4" voltageLevelId2="B12___20" p1="212.7406076824935" q1="67.390778808283628" p2="-212.74060768249353" q2="-59.430216767634789">
            <iidm:ratioTapChanger lowTapPosition="0" tapPosition="27" targetDeadband="0" loadTapChangingCapabilities="true" regulating="true" targetV="20">
                <iidm:terminalRef id="Tr12-1012" side="TWO"/>
                <iidm:step r="0" x="0" g="0" b="0" rho="1.25"/>
                <iidm:step r="0" x="0" g="0" b="0" rho="1.2345678806304932"/>
                <iidm:step r="0" x="0" g="0" b="0" rho="1.2195122241973877"/>
                <iidm:step r="0" x="0" g="0" b="0" rho="1.2048193216323853"/>
                <iidm:step r="0" x="0" g="0" b="0" rho="1.1904761791229248"/>
                <iidm:step r="0" x="0" g="0" b="0" rho="1.1764705181121826"/>
                <iidm:step r="0" x="0" g="0" b="0" rho="1.1627906560897827"/>
                <iidm:step r="0" x="0" g="0" b="0" rho="1.1494252681732178"/>
                <iidm:step r="0" x="0" g="0" b="0" rho="1.1363636255264282"/>
                <iidm:step r="0" x="0" g="0" b="0" rho="1.1235954761505127"/>
                <iidm:step r="0" x="0" g="0" b="0" rho="1.1111111640930176"/>
                <iidm:step r="0" x="0" g="0" b="0" rho="1.0989010334014893"/>
                <iidm:step r="0" x="0" g="0" b="0" rho="1.0869565010070801"/>
                <iidm:step r="0" x="0" g="0" b="0" rho="1.0752688646316528"/>
                <iidm:step r="0" x="0" g="0" b="0" rho="1.063829779624939"/>
                <iidm:step r="0" x="0" g="0" b="0" rho="1.0526316165924072"/>
                <iidm:step r="0" x="0" g="0" b="0" rho="1.0416667461395264"/>
                <iidm:step r="0" x="0" g="0" b="0" rho="1.0309277772903442"/>
                <iidm:step r="0" x="0" g="0" b="0" rho="1.0204081535339355"/>
                <iidm:step r="0" x="0" g="0" b="0" rho="1.0101009607315063"/>
                <iidm:step r="0" x="0" g="0" b="0" rho="1"/>
                <iidm:step r="0" x="0" g="0" b="0" rho="0.99009901285171509"/>
                <iidm:step r="0" x="0" g="0" b="0" rho="0.98039215803146362"/>
                <iidm:step r="0" x="0" g="0" b="0" rho="0.97087383270263672"/>
                <iidm:step r="0" x="0" g="0" b="0" rho="0.96153849363327026"/>
                <iidm:step r="0" x="0" g="0" b="0" rho="0.95238101482391357"/>
                <iidm:step r="0" x="0" g="0" b="0" rho="0.94339627027511597"/>
                <iidm:step r="0" x="0" g="0" b="0" rho="0.93457937240600586"/>
                <iidm:step r="0" x="0" g="0" b="0" rho="0.92592591047286987"/>
                <iidm:step r="0" x="0" g="0" b="0" rho="0.91743117570877075"/>
                <iidm:step r="0" x="0" g="0" b="0" rho="0.90909087657928467"/>
                <iidm:step r="0" x="0" g="0" b="0" rho="0.90090090036392212"/>
                <iidm:step r="0" x="0" g="0" b="0" rho="0.8928571343421936"/>
            </iidm:ratioTapChanger>
            <iidm:currentLimits1 permanentLimit="17320.5"/>
            <iidm:currentLimits2 permanentLimit="17320.5"/>
        </iidm:twoWindingsTransformer>
        <iidm:twoWindingsTransformer id="Tr4012-g10" r="0" x="0.04218750074505806" g="0" b="0" ratedU1="400" ratedU2="15" node1="6" voltageLevelId1="4012_400" node2="4" voltageLevelId2="BG10__15" p1="-488.74460231104138" q1="-39.773289250318243" p2="488.74460231104126" q2="84.087501692511509">
            <iidm:ratioTapChanger lowTapPosition="0" tapPosition="10" loadTapChangingCapabilities="false">
                <iidm:step r="0" x="0" g="0" b="0" rho="1.0526316165924072"/>
                <iidm:step r="0" x="0" g="0" b="0" rho="1.0416667461395264"/>
                <iidm:step r="0" x="0" g="0" b="0" rho="1.0309277772903442"/>
                <iidm:step r="0" x="0" g="0" b="0" rho="1.0204081535339355"/>
                <iidm:step r="0" x="0" g="0" b="0" rho="1.0101009607315063"/>
                <iidm:step r="0" x="0" g="0" b="0" rho="1"/>
                <iidm:step r="0" x="0" g="0" b="0" rho="0.99009901285171509"/>
                <iidm:step r="0" x="0" g="0" b="0" rho="0.98039215803146362"/>
                <iidm:step r="0" x="0" g="0" b="0" rho="0.97087383270263672"/>
                <iidm:step r="0" x="0" g="0" b="0" rho="0.96153849363327026"/>
                <iidm:step r="0" x="0" g="0" b="0" rho="0.95238101482391357"/>
            </iidm:ratioTapChanger>
            <iidm:currentLimits1 permanentLimit="30792"/>
            <iidm:currentLimits2 permanentLimit="30792"/>
        </iidm:twoWindingsTransformer>
    </iidm:substation>
    <iidm:substation id="S_1013" country="FR" tso="RTE">
        <iidm:voltageLevel id="1013_130" nominalV="130" highVoltageLimit="136.5" topologyKind="NODE_BREAKER">
            <iidm:nodeBreakerTopology>
                <iidm:busbarSection id="1013_131" node="0"/>
                <iidm:switch id="Tr1013-g2_disconnector1" kind="DISCONNECTOR" retained="true" open="false" node1="0" node2="1"/>
                <iidm:switch id="Tr1013-g2_breaker1" kind="BREAKER" retained="true" open="false" node1="1" node2="2"/>
                <iidm:switch id="Tr13-1013_disconnector1" kind="DISCONNECTOR" retained="true" open="false" node1="0" node2="3"/>
                <iidm:switch id="Tr13-1013_breaker1" kind="BREAKER" retained="true" open="false" node1="3" node2="4"/>
                <iidm:switch id="L1011-1013a_disconnector2" kind="DISCONNECTOR" retained="true" open="false" node1="0" node2="5"/>
                <iidm:switch id="L1011-1013a_breaker2" kind="BREAKER" retained="true" open="false" node1="5" node2="6"/>
                <iidm:switch id="L1011-1013b_disconnector2" kind="DISCONNECTOR" retained="true" open="false" node1="0" node2="7"/>
                <iidm:switch id="L1011-1013b_breaker2" kind="BREAKER" retained="true" open="false" node1="7" node2="8"/>
                <iidm:switch id="L1013-1014a_disconnector1" kind="DISCONNECTOR" retained="true" open="false" node1="0" node2="9"/>
                <iidm:switch id="L1013-1014a_breaker1" kind="BREAKER" retained="true" open="false" node1="9" node2="10"/>
                <iidm:switch id="L1013-1014b_disconnector1" kind="DISCONNECTOR" retained="true" open="false" node1="0" node2="11"/>
                <iidm:switch id="L1013-1014b_breaker1" kind="BREAKER" retained="true" open="false" node1="11" node2="12"/>
                <iidm:bus v="139.66818384687681" angle="47.690430711154718" nodes="0,1,2,3,4,5,6,7,8,9,10,11,12"/>
            </iidm:nodeBreakerTopology>
        </iidm:voltageLevel>
        <iidm:voltageLevel id="B13___20" nominalV="20" highVoltageLimit="21" topologyKind="NODE_BREAKER">
            <iidm:nodeBreakerTopology>
                <iidm:busbarSection id="B13___21" node="0"/>
                <iidm:switch id="13_1_disconnector" kind="DISCONNECTOR" retained="true" open="false" node1="0" node2="1"/>
                <iidm:switch id="13_1_breaker" kind="BREAKER" retained="true" open="false" node1="1" node2="2"/>
                <iidm:switch id="Tr13-1013_disconnector2" kind="DISCONNECTOR" retained="true" open="false" node1="0" node2="3"/>
                <iidm:switch id="Tr13-1013_breaker2" kind="BREAKER" retained="true" open="false" node1="3" node2="4"/>
                <iidm:bus v="20.221230205344693" angle="45.803080249441969" nodes="0,1,2,3,4"/>
            </iidm:nodeBreakerTopology>
            <iidm:load id="13_1" loadType="UNDEFINED" p0="100.00299835205078" q0="34.401699066162109" node="2" p="68.143380818289401" q="23.443708601841074"/>
        </iidm:voltageLevel>
        <iidm:voltageLevel id="BG02__15" nominalV="15" highVoltageLimit="15.750001907348633" topologyKind="NODE_BREAKER">
            <iidm:nodeBreakerTopology>
                <iidm:busbarSection id="BG02__11" node="0"/>
                <iidm:switch id="g02_disconnector" kind="DISCONNECTOR" retained="true" open="false" node1="0" node2="1"/>
                <iidm:switch id="g02_breaker" kind="BREAKER" retained="true" open="false" node1="1" node2="2"/>
                <iidm:switch id="Tr1013-g2_disconnector2" kind="DISCONNECTOR" retained="true" open="false" node1="0" node2="3"/>
                <iidm:switch id="Tr1013-g2_breaker2" kind="BREAKER" retained="true" open="false" node1="3" node2="4"/>
                <iidm:bus v="15.889118514425695" angle="50.410253333118838" nodes="0,1,2,3,4"/>
            </iidm:nodeBreakerTopology>
            <iidm:generator id="g02" energySource="HYDRO" minP="0" maxP="9999" voltageRegulatorOn="true" targetP="300" targetV="15.847498893737793" targetQ="17.233400344848633" node="2" p="-216.0117756285421" q="58.835564870960987">
                <iidm:property name="genreCvg" value="AUTRE"/>
                <iidm:reactiveCapabilityCurve>
                    <iidm:point p="0" minQ="-600" maxQ="600"/>
                    <iidm:point p="9999" minQ="-600" maxQ="600"/>
                </iidm:reactiveCapabilityCurve>
            </iidm:generator>
        </iidm:voltageLevel>
        <iidm:twoWindingsTransformer id="Tr1013-g2" r="0" x="0.056250009685754776" g="0" b="0" ratedU1="130" ratedU2="15" node1="2" voltageLevelId1="1013_130" node2="4" voltageLevelId2="BG02__15" p1="-216.01177563021875" q1="70.003105591366349" p2="216.01177563021875" q2="-58.83556487096093">
            <iidm:ratioTapChanger lowTapPosition="0" tapPosition="5" loadTapChangingCapabilities="false">
                <iidm:step r="0" x="0" g="0" b="0" rho="1.0526316165924072"/>
                <iidm:step r="0" x="0" g="0" b="0" rho="1.0416667461395264"/>
                <iidm:step r="0" x="0" g="0" b="0" rho="1.0309277772903442"/>
                <iidm:step r="0" x="0" g="0" b="0" rho="1.0204081535339355"/>
                <iidm:step r="0" x="0" g="0" b="0" rho="1.0101009607315063"/>
                <iidm:step r="0" x="0" g="0" b="0" rho="1"/>
                <iidm:step r="0" x="0" g="0" b="0" rho="0.99009901285171509"/>
                <iidm:step r="0" x="0" g="0" b="0" rho="0.98039215803146362"/>
                <iidm:step r="0" x="0" g="0" b="0" rho="0.97087383270263672"/>
                <iidm:step r="0" x="0" g="0" b="0" rho="0.96153849363327026"/>
                <iidm:step r="0" x="0" g="0" b="0" rho="0.95238101482391357"/>
            </iidm:ratioTapChanger>
            <iidm:currentLimits1 permanentLimit="23094"/>
            <iidm:currentLimits2 permanentLimit="23094"/>
        </iidm:twoWindingsTransformer>
        <iidm:twoWindingsTransformer id="Tr13-1013" r="0" x="0.20000006258487701" g="0" b="0" ratedU1="130" ratedU2="20" node1="4" voltageLevelId1="1013_130" node2="4" voltageLevelId2="B13___20" p1="68.143380819961934" q1="25.983768728267169" p2="-68.143380819962132" q2="-23.443708600983719">
            <iidm:ratioTapChanger lowTapPosition="0" tapPosition="25" targetDeadband="0" loadTapChangingCapabilities="true" regulating="true" targetV="20">
                <iidm:terminalRef id="Tr13-1013" side="TWO"/>
                <iidm:step r="0" x="0" g="0" b="0" rho="1.25"/>
                <iidm:step r="0" x="0" g="0" b="0" rho="1.2345678806304932"/>
                <iidm:step r="0" x="0" g="0" b="0" rho="1.2195122241973877"/>
                <iidm:step r="0" x="0" g="0" b="0" rho="1.2048193216323853"/>
                <iidm:step r="0" x="0" g="0" b="0" rho="1.1904761791229248"/>
                <iidm:step r="0" x="0" g="0" b="0" rho="1.1764705181121826"/>
                <iidm:step r="0" x="0" g="0" b="0" rho="1.1627906560897827"/>
                <iidm:step r="0" x="0" g="0" b="0" rho="1.1494252681732178"/>
                <iidm:step r="0" x="0" g="0" b="0" rho="1.1363636255264282"/>
                <iidm:step r="0" x="0" g="0" b="0" rho="1.1235954761505127"/>
                <iidm:step r="0" x="0" g="0" b="0" rho="1.1111111640930176"/>
                <iidm:step r="0" x="0" g="0" b="0" rho="1.0989010334014893"/>
                <iidm:step r="0" x="0" g="0" b="0" rho="1.0869565010070801"/>
                <iidm:step r="0" x="0" g="0" b="0" rho="1.0752688646316528"/>
                <iidm:step r="0" x="0" g="0" b="0" rho="1.063829779624939"/>
                <iidm:step r="0" x="0" g="0" b="0" rho="1.0526316165924072"/>
                <iidm:step r="0" x="0" g="0" b="0" rho="1.0416667461395264"/>
                <iidm:step r="0" x="0" g="0" b="0" rho="1.0309277772903442"/>
                <iidm:step r="0" x="0" g="0" b="0" rho="1.0204081535339355"/>
                <iidm:step r="0" x="0" g="0" b="0" rho="1.0101009607315063"/>
                <iidm:step r="0" x="0" g="0" b="0" rho="1"/>
                <iidm:step r="0" x="0" g="0" b="0" rho="0.99009901285171509"/>
                <iidm:step r="0" x="0" g="0" b="0" rho="0.98039215803146362"/>
                <iidm:step r="0" x="0" g="0" b="0" rho="0.97087383270263672"/>
                <iidm:step r="0" x="0" g="0" b="0" rho="0.96153849363327026"/>
                <iidm:step r="0" x="0" g="0" b="0" rho="0.95238101482391357"/>
                <iidm:step r="0" x="0" g="0" b="0" rho="0.94339627027511597"/>
                <iidm:step r="0" x="0" g="0" b="0" rho="0.93457937240600586"/>
                <iidm:step r="0" x="0" g="0" b="0" rho="0.92592591047286987"/>
                <iidm:step r="0" x="0" g="0" b="0" rho="0.91743117570877075"/>
                <iidm:step r="0" x="0" g="0" b="0" rho="0.90909087657928467"/>
                <iidm:step r="0" x="0" g="0" b="0" rho="0.90090090036392212"/>
                <iidm:step r="0" x="0" g="0" b="0" rho="0.8928571343421936"/>
            </iidm:ratioTapChanger>
            <iidm:currentLimits1 permanentLimit="5773.5"/>
            <iidm:currentLimits2 permanentLimit="5773.5"/>
        </iidm:twoWindingsTransformer>
    </iidm:substation>
    <iidm:substation id="S_1014" country="FR" tso="RTE">
        <iidm:voltageLevel id="1014_130" nominalV="130" highVoltageLimit="136.5" topologyKind="NODE_BREAKER">
            <iidm:nodeBreakerTopology>
                <iidm:busbarSection id="1014_131" node="0"/>
                <iidm:switch id="Tr1014-g3_disconnector1" kind="DISCONNECTOR" retained="true" open="false" node1="0" node2="1"/>
                <iidm:switch id="Tr1014-g3_breaker1" kind="BREAKER" retained="true" open="false" node1="1" node2="2"/>
                <iidm:switch id="L1012-1014a_disconnector1" kind="DISCONNECTOR" retained="true" open="false" node1="0" node2="3"/>
                <iidm:switch id="L1012-1014a_breaker1" kind="BREAKER" retained="true" open="false" node1="3" node2="4"/>
                <iidm:switch id="L1012-1014b_disconnector1" kind="DISCONNECTOR" retained="true" open="false" node1="0" node2="5"/>
                <iidm:switch id="L1012-1014b_breaker1" kind="BREAKER" retained="true" open="false" node1="5" node2="6"/>
                <iidm:switch id="L1013-1014a_disconnector2" kind="DISCONNECTOR" retained="true" open="false" node1="0" node2="7"/>
                <iidm:switch id="L1013-1014a_breaker2" kind="BREAKER" retained="true" open="false" node1="7" node2="8"/>
                <iidm:switch id="L1013-1014b_disconnector2" kind="DISCONNECTOR" retained="true" open="false" node1="0" node2="9"/>
                <iidm:switch id="L1013-1014b_breaker2" kind="BREAKER" retained="true" open="false" node1="9" node2="10"/>
                <iidm:bus v="139.8394202133135" angle="50.215586840742901" nodes="0,1,2,3,4,5,6,7,8,9,10"/>
            </iidm:nodeBreakerTopology>
        </iidm:voltageLevel>
        <iidm:voltageLevel id="BG03__15" nominalV="15" highVoltageLimit="15.750001907348633" topologyKind="NODE_BREAKER">
            <iidm:nodeBreakerTopology>
                <iidm:busbarSection id="BG03__11" node="0"/>
                <iidm:switch id="g03_disconnector" kind="DISCONNECTOR" retained="true" open="false" node1="0" node2="1"/>
                <iidm:switch id="g03_breaker" kind="BREAKER" retained="true" open="false" node1="1" node2="2"/>
                <iidm:switch id="Tr1014-g3_disconnector2" kind="DISCONNECTOR" retained="true" open="false" node1="0" node2="3"/>
                <iidm:switch id="Tr1014-g3_breaker2" kind="BREAKER" retained="true" open="false" node1="3" node2="4"/>
                <iidm:bus v="15.931097400492126" angle="55.084301722643126" nodes="0,1,2,3,4"/>
            </iidm:nodeBreakerTopology>
            <iidm:generator id="g03" energySource="HYDRO" minP="0" maxP="9999" voltageRegulatorOn="true" targetP="550" targetV="15.892499923706055" targetQ="20.913200378417969" node="2" p="-452.49740711155215" q="48.241908384386733">
                <iidm:property name="genreCvg" value="AUTRE"/>
                <iidm:reactiveCapabilityCurve>
                    <iidm:point p="0" minQ="-700" maxQ="700"/>
                    <iidm:point p="9999" minQ="-700" maxQ="700"/>
                </iidm:reactiveCapabilityCurve>
            </iidm:generator>
        </iidm:voltageLevel>
        <iidm:twoWindingsTransformer id="Tr1014-g3" r="0" x="0.048214320093393326" g="0" b="0" ratedU1="130" ratedU2="15" node1="2" voltageLevelId1="1014_130" node2="4" voltageLevelId2="BG03__15" p1="-452.49740712818272" q1="87.581088379351996" p2="452.49740712818272" q2="-48.241908384387358">
            <iidm:ratioTapChanger lowTapPosition="0" tapPosition="5" loadTapChangingCapabilities="false">
                <iidm:step r="0" x="0" g="0" b="0" rho="1.0526316165924072"/>
                <iidm:step r="0" x="0" g="0" b="0" rho="1.0416667461395264"/>
                <iidm:step r="0" x="0" g="0" b="0" rho="1.0309277772903442"/>
                <iidm:step r="0" x="0" g="0" b="0" rho="1.0204081535339355"/>
                <iidm:step r="0" x="0" g="0" b="0" rho="1.0101009607315063"/>
                <iidm:step r="0" x="0" g="0" b="0" rho="1"/>
                <iidm:step r="0" x="0" g="0" b="0" rho="0.99009901285171509"/>
                <iidm:step r="0" x="0" g="0" b="0" rho="0.98039215803146362"/>
                <iidm:step r="0" x="0" g="0" b="0" rho="0.97087383270263672"/>
                <iidm:step r="0" x="0" g="0" b="0" rho="0.96153849363327026"/>
                <iidm:step r="0" x="0" g="0" b="0" rho="0.95238101482391357"/>
            </iidm:ratioTapChanger>
            <iidm:currentLimits1 permanentLimit="26943"/>
            <iidm:currentLimits2 permanentLimit="26943"/>
        </iidm:twoWindingsTransformer>
    </iidm:substation>
    <iidm:substation id="S_1021" country="FR" tso="RTE">
        <iidm:voltageLevel id="1021_130" nominalV="130" highVoltageLimit="136.5" topologyKind="NODE_BREAKER">
            <iidm:nodeBreakerTopology>
                <iidm:busbarSection id="1021_131" node="0"/>
                <iidm:switch id="Tr1021-g4_disconnector1" kind="DISCONNECTOR" retained="true" open="false" node1="0" node2="1"/>
                <iidm:switch id="Tr1021-g4_breaker1" kind="BREAKER" retained="true" open="false" node1="1" node2="2"/>
                <iidm:switch id="L1021-1022a_disconnector2" kind="DISCONNECTOR" retained="true" open="false" node1="0" node2="3"/>
                <iidm:switch id="L1021-1022a_breaker2" kind="BREAKER" retained="true" open="false" node1="3" node2="4"/>
                <iidm:switch id="L1021-1022b_disconnector2" kind="DISCONNECTOR" retained="true" open="false" node1="0" node2="5"/>
                <iidm:switch id="L1021-1022b_breaker2" kind="BREAKER" retained="true" open="false" node1="5" node2="6"/>
                <iidm:bus v="137.32567469211983" angle="50.612715307976693" nodes="0,1,2,3,4,5,6"/>
            </iidm:nodeBreakerTopology>
        </iidm:voltageLevel>
        <iidm:voltageLevel id="BG04__15" nominalV="15" highVoltageLimit="15.750001907348633" topologyKind="NODE_BREAKER">
            <iidm:nodeBreakerTopology>
                <iidm:busbarSection id="BG04__11" node="0"/>
                <iidm:switch id="g04_disconnector" kind="DISCONNECTOR" retained="true" open="false" node1="0" node2="1"/>
                <iidm:switch id="g04_breaker" kind="BREAKER" retained="true" open="false" node1="1" node2="2"/>
                <iidm:switch id="Tr1021-g4_disconnector2" kind="DISCONNECTOR" retained="true" open="false" node1="0" node2="3"/>
                <iidm:switch id="Tr1021-g4_breaker2" kind="BREAKER" retained="true" open="false" node1="3" node2="4"/>
                <iidm:bus v="15.560878159138472" angle="54.750172604509146" nodes="0,1,2,3,4"/>
            </iidm:nodeBreakerTopology>
            <iidm:generator id="g04" energySource="HYDRO" minP="0" maxP="9999" voltageRegulatorOn="true" targetP="400" targetV="15.508500099182129" targetQ="30.375099182128906" node="2" p="-316.26019119682223" q="67.249677588663474">
                <iidm:property name="genreCvg" value="AUTRE"/>
                <iidm:reactiveCapabilityCurve>
                    <iidm:point p="0" minQ="-600" maxQ="600"/>
                    <iidm:point p="9999" minQ="-600" maxQ="600"/>
                </iidm:reactiveCapabilityCurve>
            </iidm:generator>
        </iidm:voltageLevel>
        <iidm:twoWindingsTransformer id="Tr1021-g4" r="0" x="0.056250009685754776" g="0" b="0" ratedU1="130" ratedU2="15" node1="2" voltageLevelId1="1021_130" node2="4" voltageLevelId2="BG04__15" p1="-316.26019119292863" q1="91.535312987954541" p2="316.26019119292874" q2="-67.249677588663388">
            <iidm:ratioTapChanger lowTapPosition="0" tapPosition="5" loadTapChangingCapabilities="false">
                <iidm:step r="0" x="0" g="0" b="0" rho="1.0526316165924072"/>
                <iidm:step r="0" x="0" g="0" b="0" rho="1.0416667461395264"/>
                <iidm:step r="0" x="0" g="0" b="0" rho="1.0309277772903442"/>
                <iidm:step r="0" x="0" g="0" b="0" rho="1.0204081535339355"/>
                <iidm:step r="0" x="0" g="0" b="0" rho="1.0101009607315063"/>
                <iidm:step r="0" x="0" g="0" b="0" rho="1"/>
                <iidm:step r="0" x="0" g="0" b="0" rho="0.99009901285171509"/>
                <iidm:step r="0" x="0" g="0" b="0" rho="0.98039215803146362"/>
                <iidm:step r="0" x="0" g="0" b="0" rho="0.97087383270263672"/>
                <iidm:step r="0" x="0" g="0" b="0" rho="0.96153849363327026"/>
                <iidm:step r="0" x="0" g="0" b="0" rho="0.95238101482391357"/>
            </iidm:ratioTapChanger>
            <iidm:currentLimits1 permanentLimit="23094"/>
            <iidm:currentLimits2 permanentLimit="23094"/>
        </iidm:twoWindingsTransformer>
    </iidm:substation>
    <iidm:substation id="S_4022" country="FR" tso="RTE">
        <iidm:voltageLevel id="1022_130" nominalV="130" highVoltageLimit="136.5" topologyKind="NODE_BREAKER">
            <iidm:nodeBreakerTopology>
                <iidm:busbarSection id="1022_131" node="0"/>
                <iidm:switch id="1022-Cap_disconnector" kind="DISCONNECTOR" retained="true" open="false" node1="0" node2="1"/>
                <iidm:switch id="1022-Cap_breaker" kind="BREAKER" retained="true" open="false" node1="1" node2="2"/>
                <iidm:switch id="Tr1022-4022_disconnector2" kind="DISCONNECTOR" retained="true" open="false" node1="0" node2="3"/>
                <iidm:switch id="Tr1022-4022_breaker2" kind="BREAKER" retained="true" open="false" node1="3" node2="4"/>
                <iidm:switch id="Tr1022-g5_disconnector1" kind="DISCONNECTOR" retained="true" open="false" node1="0" node2="5"/>
                <iidm:switch id="Tr1022-g5_breaker1" kind="BREAKER" retained="true" open="false" node1="5" node2="6"/>
                <iidm:switch id="Tr22-1022_disconnector1" kind="DISCONNECTOR" retained="true" open="false" node1="0" node2="7"/>
                <iidm:switch id="Tr22-1022_breaker1" kind="BREAKER" retained="true" open="false" node1="7" node2="8"/>
                <iidm:switch id="L1021-1022a_disconnector1" kind="DISCONNECTOR" retained="true" open="false" node1="0" node2="9"/>
                <iidm:switch id="L1021-1022a_breaker1" kind="BREAKER" retained="true" open="false" node1="9" node2="10"/>
                <iidm:switch id="L1021-1022b_disconnector1" kind="DISCONNECTOR" retained="true" open="false" node1="0" node2="11"/>
                <iidm:switch id="L1021-1022b_breaker1" kind="BREAKER" retained="true" open="false" node1="11" node2="12"/>
                <iidm:bus v="147.99967588363134" angle="34.711868378875906" nodes="0,1,2,3,4,5,6,7,8,9,10,11,12"/>
            </iidm:nodeBreakerTopology>
            <iidm:shunt id="1022-Cap" sectionCount="1" voltageRegulatorOn="false" node="2" q="-64.804450731521712">
                <iidm:property name="qMax" value="50"/>
                <iidm:shuntLinearModel bPerSection="0.002958579920232296" maximumSectionCount="1"/>
            </iidm:shunt>
        </iidm:voltageLevel>
        <iidm:voltageLevel id="4022_400" nominalV="400" highVoltageLimit="420" topologyKind="NODE_BREAKER">
            <iidm:nodeBreakerTopology>
                <iidm:busbarSection id="4022_401" node="0"/>
                <iidm:switch id="Tr1022-4022_disconnector1" kind="DISCONNECTOR" retained="true" open="false" node1="0" node2="1"/>
                <iidm:switch id="Tr1022-4022_breaker1" kind="BREAKER" retained="true" open="false" node1="1" node2="2"/>
                <iidm:switch id="L4011-4022_disconnector2" kind="DISCONNECTOR" retained="true" open="false" node1="0" node2="3"/>
                <iidm:switch id="L4011-4022_breaker2" kind="BREAKER" retained="true" open="false" node1="3" node2="4"/>
                <iidm:switch id="L4012-4022_disconnector2" kind="DISCONNECTOR" retained="true" open="false" node1="0" node2="5"/>
                <iidm:switch id="L4012-4022_breaker2" kind="BREAKER" retained="true" open="false" node1="5" node2="6"/>
                <iidm:switch id="L4022-4031a_disconnector2" kind="DISCONNECTOR" retained="true" open="false" node1="0" node2="7"/>
                <iidm:switch id="L4022-4031a_breaker2" kind="BREAKER" retained="true" open="false" node1="7" node2="8"/>
                <iidm:switch id="L4022-4031b_disconnector2" kind="DISCONNECTOR" retained="true" open="false" node1="0" node2="9"/>
                <iidm:switch id="L4022-4031b_breaker2" kind="BREAKER" retained="true" open="false" node1="9" node2="10"/>
                <iidm:bus v="434.50379029974204" angle="33.422954722528701" nodes="0,1,2,3,4,5,6,7,8,9,10"/>
            </iidm:nodeBreakerTopology>
        </iidm:voltageLevel>
        <iidm:voltageLevel id="B22___20" nominalV="20" highVoltageLimit="21" topologyKind="NODE_BREAKER">
            <iidm:nodeBreakerTopology>
                <iidm:busbarSection id="B22___21" node="0"/>
                <iidm:switch id="22_1_disconnector" kind="DISCONNECTOR" retained="true" open="false" node1="0" node2="1"/>
                <iidm:switch id="22_1_breaker" kind="BREAKER" retained="true" open="false" node1="1" node2="2"/>
                <iidm:switch id="Tr22-1022_disconnector2" kind="DISCONNECTOR" retained="true" open="false" node1="0" node2="3"/>
                <iidm:switch id="Tr22-1022_breaker2" kind="BREAKER" retained="true" open="false" node1="3" node2="4"/>
                <iidm:bus v="20.093983835865075" angle="32.52976253771881" nodes="0,1,2,3,4"/>
            </iidm:nodeBreakerTopology>
            <iidm:load id="22_1" loadType="UNDEFINED" p0="280.01199340820312" q0="79.90679931640625" node="2" p="217.75648043578184" q="62.142541674403141"/>
        </iidm:voltageLevel>
        <iidm:voltageLevel id="BG05__15" nominalV="15" highVoltageLimit="15.750001907348633" topologyKind="NODE_BREAKER">
            <iidm:nodeBreakerTopology>
                <iidm:busbarSection id="BG05__11" node="0"/>
                <iidm:switch id="g05_disconnector" kind="DISCONNECTOR" retained="true" open="false" node1="0" node2="1"/>
                <iidm:switch id="g05_breaker" kind="BREAKER" retained="true" open="false" node1="1" node2="2"/>
                <iidm:switch id="Tr1022-g5_disconnector2" kind="DISCONNECTOR" retained="true" open="false" node1="0" node2="3"/>
                <iidm:switch id="Tr1022-g5_breaker2" kind="BREAKER" retained="true" open="false" node1="3" node2="4"/>
                <iidm:bus v="15.573839455635714" angle="39.764371420024354" nodes="0,1,2,3,4"/>
            </iidm:nodeBreakerTopology>
            <iidm:generator id="g05" energySource="HYDRO" minP="0" maxP="9999" voltageRegulatorOn="true" targetP="200" targetV="15.440999984741211" targetQ="60.0614013671875" node="2" p="-165.2350425872043" q="72.293542660779124">
                <iidm:property name="genreCvg" value="AUTRE"/>
                <iidm:reactiveCapabilityCurve>
                    <iidm:point p="0" minQ="-250" maxQ="250"/>
                    <iidm:point p="9999" minQ="-250" maxQ="250"/>
                </iidm:reactiveCapabilityCurve>
            </iidm:generator>
        </iidm:voltageLevel>
        <iidm:twoWindingsTransformer id="Tr1022-4022" r="0" x="2.0280842781066895" g="0" b="0" ratedU1="400" ratedU2="130" node1="2" voltageLevelId1="4022_400" node2="4" voltageLevelId2="1022_130" p1="-249.24894517552207" q1="290.53315139292624" p2="249.24894517552246" q2="-277.64359331032131">
            <iidm:ratioTapChanger lowTapPosition="0" tapPosition="3" loadTapChangingCapabilities="false">
                <iidm:step r="0" x="0" g="0" b="0" rho="1.1111111640930176"/>
                <iidm:step r="0" x="0" g="0" b="0" rho="1.0989010334014893"/>
                <iidm:step r="0" x="0" g="0" b="0" rho="1.0869565010070801"/>
                <iidm:step r="0" x="0" g="0" b="0" rho="1.0752688646316528"/>
                <iidm:step r="0" x="0" g="0" b="0" rho="1.063829779624939"/>
                <iidm:step r="0" x="0" g="0" b="0" rho="1.0526316165924072"/>
                <iidm:step r="0" x="0" g="0" b="0" rho="1.0416667461395264"/>
                <iidm:step r="0" x="0" g="0" b="0" rho="1.0309277772903442"/>
                <iidm:step r="0" x="0" g="0" b="0" rho="1.0204081535339355"/>
                <iidm:step r="0" x="0" g="0" b="0" rho="1.0101009607315063"/>
                <iidm:step r="0" x="0" g="0" b="0" rho="1"/>
                <iidm:step r="0" x="0" g="0" b="0" rho="0.99009901285171509"/>
                <iidm:step r="0" x="0" g="0" b="0" rho="0.98039215803146362"/>
                <iidm:step r="0" x="0" g="0" b="0" rho="0.97087383270263672"/>
                <iidm:step r="0" x="0" g="0" b="0" rho="0.96153849363327026"/>
                <iidm:step r="0" x="0" g="0" b="0" rho="0.95238101482391357"/>
                <iidm:step r="0" x="0" g="0" b="0" rho="0.94339627027511597"/>
                <iidm:step r="0" x="0" g="0" b="0" rho="0.93457937240600586"/>
                <iidm:step r="0" x="0" g="0" b="0" rho="0.92592591047286987"/>
                <iidm:step r="0" x="0" g="0" b="0" rho="0.91743117570877075"/>
                <iidm:step r="0" x="0" g="0" b="0" rho="0.90909087657928467"/>
            </iidm:ratioTapChanger>
            <iidm:currentLimits1 permanentLimit="3700.820068359375"/>
            <iidm:currentLimits2 permanentLimit="3700.820068359375"/>
        </iidm:twoWindingsTransformer>
        <iidm:twoWindingsTransformer id="Tr1022-g5" r="0" x="0.13500003516674042" g="0" b="0" ratedU1="130" ratedU2="15" node1="6" voltageLevelId1="1022_130" node2="4" voltageLevelId2="BG05__15" p1="-165.2350425859812" q1="90.399141001336119" p2="165.23504258598109" q2="-72.293542660779011">
            <iidm:ratioTapChanger lowTapPosition="0" tapPosition="10" loadTapChangingCapabilities="false">
                <iidm:step r="0" x="0" g="0" b="0" rho="1.0526316165924072"/>
                <iidm:step r="0" x="0" g="0" b="0" rho="1.0416667461395264"/>
                <iidm:step r="0" x="0" g="0" b="0" rho="1.0309277772903442"/>
                <iidm:step r="0" x="0" g="0" b="0" rho="1.0204081535339355"/>
                <iidm:step r="0" x="0" g="0" b="0" rho="1.0101009607315063"/>
                <iidm:step r="0" x="0" g="0" b="0" rho="1"/>
                <iidm:step r="0" x="0" g="0" b="0" rho="0.99009901285171509"/>
                <iidm:step r="0" x="0" g="0" b="0" rho="0.98039215803146362"/>
                <iidm:step r="0" x="0" g="0" b="0" rho="0.97087383270263672"/>
                <iidm:step r="0" x="0" g="0" b="0" rho="0.96153849363327026"/>
                <iidm:step r="0" x="0" g="0" b="0" rho="0.95238101482391357"/>
            </iidm:ratioTapChanger>
            <iidm:currentLimits1 permanentLimit="9622.5"/>
            <iidm:currentLimits2 permanentLimit="9622.5"/>
        </iidm:twoWindingsTransformer>
        <iidm:twoWindingsTransformer id="Tr22-1022" r="0" x="0.071428664028644562" g="0" b="0" ratedU1="130" ratedU2="20" node1="8" voltageLevelId1="1022_130" node2="4" voltageLevelId2="B22___20" p1="217.75648043688966" q1="71.21416255213795" p2="-217.7564804368902" q2="-62.142541673664319">
            <iidm:ratioTapChanger lowTapPosition="0" tapPosition="32" targetDeadband="0" loadTapChangingCapabilities="true" regulating="true" targetV="20">
                <iidm:terminalRef id="Tr22-1022" side="TWO"/>
                <iidm:step r="0" x="0" g="0" b="0" rho="1.25"/>
                <iidm:step r="0" x="0" g="0" b="0" rho="1.2345678806304932"/>
                <iidm:step r="0" x="0" g="0" b="0" rho="1.2195122241973877"/>
                <iidm:step r="0" x="0" g="0" b="0" rho="1.2048193216323853"/>
                <iidm:step r="0" x="0" g="0" b="0" rho="1.1904761791229248"/>
                <iidm:step r="0" x="0" g="0" b="0" rho="1.1764705181121826"/>
                <iidm:step r="0" x="0" g="0" b="0" rho="1.1627906560897827"/>
                <iidm:step r="0" x="0" g="0" b="0" rho="1.1494252681732178"/>
                <iidm:step r="0" x="0" g="0" b="0" rho="1.1363636255264282"/>
                <iidm:step r="0" x="0" g="0" b="0" rho="1.1235954761505127"/>
                <iidm:step r="0" x="0" g="0" b="0" rho="1.1111111640930176"/>
                <iidm:step r="0" x="0" g="0" b="0" rho="1.0989010334014893"/>
                <iidm:step r="0" x="0" g="0" b="0" rho="1.0869565010070801"/>
                <iidm:step r="0" x="0" g="0" b="0" rho="1.0752688646316528"/>
                <iidm:step r="0" x="0" g="0" b="0" rho="1.063829779624939"/>
                <iidm:step r="0" x="0" g="0" b="0" rho="1.0526316165924072"/>
                <iidm:step r="0" x="0" g="0" b="0" rho="1.0416667461395264"/>
                <iidm:step r="0" x="0" g="0" b="0" rho="1.0309277772903442"/>
                <iidm:step r="0" x="0" g="0" b="0" rho="1.0204081535339355"/>
                <iidm:step r="0" x="0" g="0" b="0" rho="1.0101009607315063"/>
                <iidm:step r="0" x="0" g="0" b="0" rho="1"/>
                <iidm:step r="0" x="0" g="0" b="0" rho="0.99009901285171509"/>
                <iidm:step r="0" x="0" g="0" b="0" rho="0.98039215803146362"/>
                <iidm:step r="0" x="0" g="0" b="0" rho="0.97087383270263672"/>
                <iidm:step r="0" x="0" g="0" b="0" rho="0.96153849363327026"/>
                <iidm:step r="0" x="0" g="0" b="0" rho="0.95238101482391357"/>
                <iidm:step r="0" x="0" g="0" b="0" rho="0.94339627027511597"/>
                <iidm:step r="0" x="0" g="0" b="0" rho="0.93457937240600586"/>
                <iidm:step r="0" x="0" g="0" b="0" rho="0.92592591047286987"/>
                <iidm:step r="0" x="0" g="0" b="0" rho="0.91743117570877075"/>
                <iidm:step r="0" x="0" g="0" b="0" rho="0.90909087657928467"/>
                <iidm:step r="0" x="0" g="0" b="0" rho="0.90090090036392212"/>
                <iidm:step r="0" x="0" g="0" b="0" rho="0.8928571343421936"/>
            </iidm:ratioTapChanger>
            <iidm:currentLimits1 permanentLimit="16165.7998046875"/>
            <iidm:currentLimits2 permanentLimit="16165.7998046875"/>
        </iidm:twoWindingsTransformer>
    </iidm:substation>
    <iidm:substation id="S_1041" country="FR" tso="RTE">
        <iidm:voltageLevel id="1041_130" nominalV="130" highVoltageLimit="136.5" topologyKind="NODE_BREAKER">
            <iidm:nodeBreakerTopology>
                <iidm:busbarSection id="1041_131" node="0"/>
                <iidm:switch id="1041-Cap_disconnector" kind="DISCONNECTOR" retained="true" open="false" node1="0" node2="1"/>
                <iidm:switch id="1041-Cap_breaker" kind="BREAKER" retained="true" open="false" node1="1" node2="2"/>
                <iidm:switch id="Tr1-1041_disconnector1" kind="DISCONNECTOR" retained="true" open="false" node1="0" node2="3"/>
                <iidm:switch id="Tr1-1041_breaker1" kind="BREAKER" retained="true" open="false" node1="3" node2="4"/>
                <iidm:switch id="L1041-1043a_disconnector1" kind="DISCONNECTOR" retained="true" open="false" node1="0" node2="5"/>
                <iidm:switch id="L1041-1043a_breaker1" kind="BREAKER" retained="true" open="false" node1="5" node2="6"/>
                <iidm:switch id="L1041-1043b_disconnector1" kind="DISCONNECTOR" retained="true" open="false" node1="0" node2="7"/>
                <iidm:switch id="L1041-1043b_breaker1" kind="BREAKER" retained="true" open="false" node1="7" node2="8"/>
...